# generated using pymatgen
data_MnCo2Si
_symmetry_space_group_name_H-M   'P 1'
_cell_length_a   5.62944400
_cell_length_b   5.62944400
_cell_length_c   5.62944400
_cell_angle_alpha   90.00000000
_cell_angle_beta   90.00000000
_cell_angle_gamma   90.00000000
_symmetry_Int_Tables_number   1
_chemical_formula_structural   MnCo2Si
_chemical_formula_sum   'Mn4 Co8 Si4'
_cell_volume   178.40068179
_cell_formula_units_Z   4
loop_
 _symmetry_equiv_pos_site_id
 _symmetry_equiv_pos_as_xyz
  1  'x, y, z'
loop_
 _atom_type_symbol
 _atom_type_oxidation_number
  Mn2+  2.0
  Co+  1.0
  Si4-  -4.0
loop_
 _atom_site_type_symbol
 _atom_site_label
 _atom_site_symmetry_multiplicity
 _atom_site_fract_x
 _atom_site_fract_y
 _atom_site_fract_z
 _atom_site_occupancy
  Mn2+  Mn0  1  0.00000000  0.00000000  0.00000000  1
  Mn2+  Mn1  1  0.00000000  0.50000000  0.50000000  1
  Mn2+  Mn2  1  0.50000000  0.00000000  0.50000000  1
  Mn2+  Mn3  1  0.50000000  0.50000000  0.00000000  1
  Co+  Co4  1  0.25000000  0.75000000  0.75000000  1
  Co+  Co5  1  0.25000000  0.25000000  0.75000000  1
  Co+  Co6  1  0.25000000  0.25000000  0.25000000  1
  Co+  Co7  1  0.25000000  0.75000000  0.25000000  1
  Co+  Co8  1  0.75000000  0.75000000  0.25000000  1
  Co+  Co9  1  0.75000000  0.25000000  0.25000000  1
  Co+  Co10  1  0.75000000  0.25000000  0.75000000  1
  Co+  Co11  1  0.75000000  0.75000000  0.75000000  1
  Si4-  Si12  1  0.50000000  0.00000000  0.00000000  1
  Si4-  Si13  1  0.50000000  0.50000000  0.50000000  1
  Si4-  Si14  1  0.00000000  0.00000000  0.50000000  1
  Si4-  Si15  1  0.00000000  0.50000000  0.00000000  1
